137517259
  -OEChem-04162505253D

 26 25  0     0  0  0  0  0  0999 V2000
   -2.5587    1.6020    1.2906 Cl  0  0  0  0  0  0  0  0  0  0  0  0
    3.6892    0.7671   -0.3450 O   0  0  0  0  0  0  0  0  0  0  0  0
    2.7215   -1.6593    0.1541 O   0  0  0  0  0  0  0  0  0  0  0  0
    0.4229   -1.0395    0.3406 C   0  0  0  0  0  0  0  0  0  0  0  0
    2.2938    0.6845   -0.1270 C   0  0  0  0  0  0  0  0  0  0  0  0
    1.8848   -0.7571    0.1228 C   0  0  0  0  0  0  0  0  0  0  0  0
   -0.4423   -0.0172    0.9023 C   0  0  0  0  0  0  0  0  0  0  0  0
   -1.6919    0.3072    0.5158 C   0  0  0  0  0  0  0  0  0  0  0  0
   -2.3284   -0.4001   -0.5878 C   0  0  0  0  0  0  0  0  0  0  0  0
   -0.0420   -2.2397   -0.0413 C   0  0  0  0  0  0  0  0  0  0  0  0
   -3.5582   -0.1943   -1.0861 C   0  0  0  0  0  0  0  0  0  0  0  0
    4.1082    2.1066   -0.5828 C   0  0  0  0  0  0  0  0  0  0  0  0
   -4.4991    0.8397   -0.5562 C   0  0  0  0  0  0  0  0  0  0  0  0
    1.7606    1.0492   -1.0118 H   0  0  0  0  0  0  0  0  0  0  0  0
    2.0371    1.2858    0.7509 H   0  0  0  0  0  0  0  0  0  0  0  0
    0.0067    0.5464    1.7194 H   0  0  0  0  0  0  0  0  0  0  0  0
   -1.7602   -1.1021   -1.1835 H   0  0  0  0  0  0  0  0  0  0  0  0
    0.6134   -2.9806   -0.4908 H   0  0  0  0  0  0  0  0  0  0  0  0
   -1.0555   -2.5780    0.1458 H   0  0  0  0  0  0  0  0  0  0  0  0
   -3.8789   -0.7669   -1.9526 H   0  0  0  0  0  0  0  0  0  0  0  0
    5.1893    2.1046   -0.7454 H   0  0  0  0  0  0  0  0  0  0  0  0
    3.8855    2.7368    0.2836 H   0  0  0  0  0  0  0  0  0  0  0  0
    3.6203    2.5070   -1.4767 H   0  0  0  0  0  0  0  0  0  0  0  0
   -4.8165    0.6460    0.4720 H   0  0  0  0  0  0  0  0  0  0  0  0
   -4.1584    1.8625   -0.7382 H   0  0  0  0  0  0  0  0  0  0  0  0
   -5.4266    0.7578   -1.1399 H   0  0  0  0  0  0  0  0  0  0  0  0
  1  8  1  0  0  0  0
  2  5  1  0  0  0  0
  2 12  1  0  0  0  0
  3  6  2  0  0  0  0
  4  6  1  0  0  0  0
  4  7  1  0  0  0  0
  4 10  2  0  0  0  0
  5  6  1  0  0  0  0
  5 14  1  0  0  0  0
  5 15  1  0  0  0  0
  7  8  2  0  0  0  0
  7 16  1  0  0  0  0
  8  9  1  0  0  0  0
  9 11  2  0  0  0  0
  9 17  1  0  0  0  0
 10 18  1  0  0  0  0
 10 19  1  0  0  0  0
 11 13  1  0  0  0  0
 11 20  1  0  0  0  0
 12 21  1  0  0  0  0
 12 22  1  0  0  0  0
 12 23  1  0  0  0  0
 13 24  1  0  0  0  0
 13 25  1  0  0  0  0
 13 26  1  0  0  0  0
M  END
> <PUBCHEM_COMPOUND_CID>
137517259

> <PUBCHEM_CONFORMER_RMSD>
0.6

> <PUBCHEM_CONFORMER_DIVERSEORDER>
1
57
62
44
63
29
37
45
28
48
2
15
41
53
24
36
9
6
58
56
35
49
21
18
64
46
47
5
55
4
54
17
52
32
7
31
39
16
34
10
60
19
51
38
14
42
8
11
25
65
40
50
61
22
43
23
13
27
3
59
30
33
12
26
20

> <PUBCHEM_MMFF94_PARTIAL_CHARGES>
18
1 -0.14
10 -0.3
11 -0.29
12 0.28
13 0.14
16 0.15
17 0.15
18 0.15
19 0.15
2 -0.56
20 0.15
3 -0.57
4 0.01
5 0.34
6 0.49
7 -0.15
8 0.14
9 -0.15

> <PUBCHEM_EFFECTIVE_ROTOR_COUNT>
5

> <PUBCHEM_PHARMACOPHORE_FEATURES>
4
1 10 hydrophobe
1 13 hydrophobe
1 2 acceptor
1 3 acceptor

> <PUBCHEM_HEAVY_ATOM_COUNT>
13

> <PUBCHEM_ATOM_DEF_STEREO_COUNT>
0

> <PUBCHEM_ATOM_UDEF_STEREO_COUNT>
0

> <PUBCHEM_BOND_DEF_STEREO_COUNT>
2

> <PUBCHEM_BOND_UDEF_STEREO_COUNT>
0

> <PUBCHEM_ISOTOPIC_ATOM_COUNT>
0

> <PUBCHEM_COMPONENT_COUNT>
1

> <PUBCHEM_CACTVS_TAUTO_COUNT>
-1

> <PUBCHEM_CONFORMER_ID>
083258CB00000001

> <PUBCHEM_MMFF94_ENERGY>
45.5133

> <PUBCHEM_FEATURE_SELFOVERLAP>
20.306

> <PUBCHEM_SHAPE_FINGERPRINT>
10465860 71 16702301273690044273
12006461 19 11959721707517047749
122479 349 17822575035510208020
12932764 1 17095532746709553171
14415576 193 18336542703623104741
14897335 6 18409445929751469554
15342168 16 18187660127508242653
15501527 24 18201433735523287061
15775835 57 18407758157347631588
17834072 32 17898296245490115588
17959699 21 18335696088539876133
18186145 218 18410018697514800438
19422 9 18059856104425748423
20645476 183 18272644701360476223
20871999 31 17987506178034609439
21499 59 18408886247788099631
21524375 3 18410291423996570042
22096605 113 18187641397039339171
2255824 54 18266178335986200754
228727 97 17989488506951403867
22926399 37 18410572911821460669
22959321 54 18411138060629215544
23382010 3 18271238425687610018
23402539 116 18201147836819821796
23402655 69 18343300361921773380
23552423 10 17984702208487813035
23598291 2 17986963942032956529
25610 137 18412829101313021771
328317 168 18336542836683013164
474 4 18334577927615104449
57096353 35 18059564794015998277
83771 10 10807941465851497384

> <PUBCHEM_SHAPE_MULTIPOLES>
257.67
7.72
2.02
1.03
0.71
0.19
-0.09
-4.49
2.6
1.42
-0.08
-0.73
-0.28
-1

> <PUBCHEM_SHAPE_SELFOVERLAP>
489.802

> <PUBCHEM_SHAPE_VOLUME>
159.1

> <PUBCHEM_COORDINATE_TYPE>
2
5
10

$$$$
