REMARK  Name = 137517260
REMARK  14 active torsions:
REMARK  status: ('A' for Active; 'I' for Inactive)
REMARK    1  A    between atoms: P_1  and  O_5
REMARK    2  A    between atoms: P_1  and  O_7
REMARK    3  A    between atoms: P_1  and  N_13
REMARK    4  A    between atoms: O_4  and  C_16
REMARK    5  A    between atoms: O_5  and  C_20
REMARK    6  A    between atoms: O_6  and  C_21
REMARK    7  A    between atoms: O_6  and  C_28
REMARK    8  A    between atoms: O_7  and  C_32
REMARK    9  A    between atoms: N_12  and  C_17
REMARK   10  A    between atoms: N_13  and  C_27
REMARK   11  A    between atoms: C_15  and  C_19
REMARK   12  A    between atoms: C_18  and  C_20
REMARK   13  A    between atoms: C_27  and  C_28
REMARK   14  A    between atoms: C_27  and  C_31
REMARK                            x       y       z     vdW  Elec       q    Type
REMARK                         _______ _______ _______ _____ _____    ______ ____
ROOT
ATOM      1  P   UNL     1      -2.950  -0.487  -1.318  0.00  0.00    +0.000 P 
ATOM      2  O   UNL     1      -3.790  -0.348  -2.563  0.00  0.00    +0.000 OA
ENDROOT
BRANCH   1   3
ATOM      3  N   UNL     1      -2.221   0.889  -0.745  0.00  0.00    +0.000 NA
ATOM      4  H   UNL     1      -2.815   1.561  -0.260  0.00  0.00    +0.000 HD
BRANCH   3   5
ATOM      5  C   UNL     1      -1.282   1.591  -1.606  0.00  0.00    +0.000 C 
ATOM      6  C   UNL     1      -2.018   2.650  -2.416  0.00  0.00    +0.000 C 
BRANCH   5   8
ATOM      7  O   UNL     1      -0.401   2.656   0.405  0.00  0.00    +0.000 OA
ATOM      8  C   UNL     1      -0.222   2.230  -0.728  0.00  0.00    +0.000 C 
BRANCH   8   9
ATOM      9  O   UNL     1       0.969   2.247  -1.402  0.00  0.00    +0.000 OA
BRANCH   9  10
ATOM     10  C   UNL     1       2.079   2.819  -0.690  0.00  0.00    +0.000 C 
ATOM     11  C   UNL     1       2.034   4.351  -0.475  0.00  0.00    +0.000 C 
ATOM     12  C   UNL     1       3.363   3.055  -1.520  0.00  0.00    +0.000 C 
ATOM     13  C   UNL     1       3.552   4.367  -0.736  0.00  0.00    +0.000 C 
ENDBRANCH   9  10
ENDBRANCH   8   9
ENDBRANCH   5   8
ENDBRANCH   3   5
ENDBRANCH   1   3
BRANCH   1  14
ATOM     14  O   UNL     1      -1.777  -1.595  -1.547  0.00  0.00    +0.000 OA
BRANCH  14  15
ATOM     15  C   UNL     1      -0.975  -2.023  -0.458  0.00  0.00    +0.000 C 
BRANCH  15  21
ATOM     16  F   UNL     1       2.816  -3.627  -1.670  0.00  0.00    +0.000 F 
ATOM     17  O   UNL     1       1.199  -1.222  -1.148  0.00  0.00    +0.000 OA
ATOM     18  C   UNL     1       2.599  -3.013  -0.466  0.00  0.00    +0.000 C 
ATOM     19  C   UNL     1       1.176  -3.302  -0.033  0.00  0.00    +0.000 C 
ATOM     20  C   UNL     1       2.549  -1.512  -0.732  0.00  0.00    +0.000 C 
ATOM     21  C   UNL     1       0.398  -2.405  -0.981  0.00  0.00    +0.000 C 
ATOM     22  C   UNL     1       3.675  -3.502   0.485  0.00  0.00    +0.000 C 
BRANCH  20  25
ATOM     23  O   UNL     1       5.099  -0.456  -0.135  0.00  0.00    +0.000 OA
ATOM     24  O   UNL     1       3.558   1.587   3.699  0.00  0.00    +0.000 OA
ATOM     25  N   UNL     1       2.842  -0.699   0.416  0.00  0.00    +0.000 N 
ATOM     26  N   UNL     1       4.329   0.561   1.774  0.00  0.00    +0.000 N 
ATOM     27  C   UNL     1       4.156  -0.220   0.624  0.00  0.00    +0.000 A 
ATOM     28  C   UNL     1       1.833  -0.386   1.319  0.00  0.00    +0.000 A 
ATOM     29  C   UNL     1       2.014   0.360   2.411  0.00  0.00    +0.000 A 
ATOM     30  C   UNL     1       3.357   0.899   2.703  0.00  0.00    +0.000 A 
ATOM     31  H   UNL     1       5.266   0.917   1.944  0.00  0.00    +0.000 HD
ENDBRANCH  20  25
BRANCH  19  32
ATOM     32  O   UNL     1       0.816  -4.659  -0.185  0.00  0.00    +0.000 OA
ATOM     33  H   UNL     1      -0.123  -4.745   0.053  0.00  0.00    +0.000 HD
ENDBRANCH  19  32
ENDBRANCH  15  21
ENDBRANCH  14  15
ENDBRANCH   1  14
BRANCH   1  34
ATOM     34  O   UNL     1      -3.778  -1.154  -0.093  0.00  0.00    +0.000 OA
BRANCH  34  35
ATOM     35  C   UNL     1      -4.796  -0.553   0.598  0.00  0.00    +0.000 A 
ATOM     36  C   UNL     1      -5.613   0.382  -0.037  0.00  0.00    +0.000 A 
ATOM     37  C   UNL     1      -5.016  -0.877   1.937  0.00  0.00    +0.000 A 
ATOM     38  C   UNL     1      -6.650   0.993   0.667  0.00  0.00    +0.000 A 
ATOM     39  C   UNL     1      -6.053  -0.266   2.641  0.00  0.00    +0.000 A 
ATOM     40  C   UNL     1      -6.870   0.670   2.006  0.00  0.00    +0.000 A 
ENDBRANCH  34  35
ENDBRANCH   1  34
TORSDOF 12
