REMARK  Name = 11799694
REMARK  15 active torsions:
REMARK  status: ('A' for Active; 'I' for Inactive)
REMARK    1  A    between atoms: O_1  and  C_15
REMARK    2  A    between atoms: O_1  and  C_31
REMARK    3  A    between atoms: O_3  and  C_27
REMARK    4  A    between atoms: O_3  and  C_32
REMARK    5  A    between atoms: O_6  and  C_34
REMARK    6  A    between atoms: O_6  and  C_36
REMARK    7  A    between atoms: C_11  and  C_23
REMARK    8  A    between atoms: C_12  and  C_25
REMARK    9  A    between atoms: C_14  and  C_24
REMARK   10  A    between atoms: C_24  and  C_28
REMARK   11  A    between atoms: C_24  and  C_29
REMARK   12  A    between atoms: C_28  and  C_30
REMARK   13  A    between atoms: C_30  and  C_34
REMARK   14  A    between atoms: C_31  and  C_33
REMARK   15  A    between atoms: C_32  and  C_35
REMARK                            x       y       z     vdW  Elec       q    Type
REMARK                         _______ _______ _______ _____ _____    ______ ____
ROOT
ATOM      1  O   UNL     1      -1.235   0.719   1.900  0.00  0.00    +0.000 OA
ATOM      2  C   UNL     1       0.803  -0.495  -1.512  0.00  0.00    +0.000 C 
ATOM      3  C   UNL     1       1.521   0.348  -0.407  0.00  0.00    +0.000 C 
ATOM      4  C   UNL     1      -0.386  -1.218  -0.860  0.00  0.00    +0.000 C 
ATOM      5  C   UNL     1      -1.456  -0.263  -0.299  0.00  0.00    +0.000 C 
ATOM      6  C   UNL     1       2.833   1.043  -0.949  0.00  0.00    +0.000 C 
ATOM      7  C   UNL     1       3.771  -0.044  -1.578  0.00  0.00    +0.000 C 
ATOM      8  C   UNL     1      -2.468  -1.309   0.230  0.00  0.00    +0.000 C 
ATOM      9  C   UNL     1       0.541   1.269   0.374  0.00  0.00    +0.000 C 
ATOM     10  C   UNL     1       1.760  -1.508  -2.158  0.00  0.00    +0.000 C 
ATOM     11  C   UNL     1      -1.195  -2.212  -1.684  0.00  0.00    +0.000 C 
ATOM     12  C   UNL     1       3.051  -0.868  -2.656  0.00  0.00    +0.000 C 
ATOM     13  C   UNL     1      -2.486  -2.397  -0.870  0.00  0.00    +0.000 C 
ATOM     14  C   UNL     1      -0.755   0.563   0.777  0.00  0.00    +0.000 C 
ATOM     15  C   UNL     1       3.616   1.774   0.180  0.00  0.00    +0.000 C 
ATOM     16  C   UNL     1       4.410  -0.970  -0.522  0.00  0.00    +0.000 C 
ATOM     17  C   UNL     1      -2.105   0.678  -1.332  0.00  0.00    +0.000 C 
ATOM     18  C   UNL     1       2.531   2.112  -2.031  0.00  0.00    +0.000 C 
ATOM     19  C   UNL     1       4.222   0.840   1.220  0.00  0.00    +0.000 C 
ATOM     20  C   UNL     1       5.137  -0.188   0.568  0.00  0.00    +0.000 C 
ENDROOT
BRANCH   8  21
ATOM     21  C   UNL     1      -3.866  -0.800   0.562  0.00  0.00    +0.000 C 
ATOM     22  C   UNL     1      -3.781   0.312   1.612  0.00  0.00    +0.000 C 
BRANCH  21  23
ATOM     23  C   UNL     1      -4.758  -1.969   1.025  0.00  0.00    +0.000 C 
BRANCH  23  24
ATOM     24  C   UNL     1      -6.164  -1.539   1.449  0.00  0.00    +0.000 C 
BRANCH  24  26
ATOM     25  O   UNL     1      -6.779  -1.210  -0.882  0.00  0.00    +0.000 OA
ATOM     26  C   UNL     1      -6.939  -0.934   0.299  0.00  0.00    +0.000 C 
BRANCH  26  27
ATOM     27  O   UNL     1      -7.832  -0.028   0.796  0.00  0.00    +0.000 OA
ATOM     28  C   UNL     1      -8.637   0.642  -0.179  0.00  0.00    +0.000 C 
ENDBRANCH  26  27
ENDBRANCH  24  26
ENDBRANCH  23  24
ENDBRANCH  21  23
ENDBRANCH   8  21
BRANCH   9  29
ATOM     29  O   UNL     1       0.164   2.413  -0.365  0.00  0.00    +0.000 OA
BRANCH  29  31
ATOM     30  O   UNL     1      -0.107   3.618   1.588  0.00  0.00    +0.000 OA
ATOM     31  C   UNL     1      -0.138   3.533   0.368  0.00  0.00    +0.000 C 
ATOM     32  C   UNL     1      -0.517   4.661  -0.543  0.00  0.00    +0.000 C 
ENDBRANCH  29  31
ENDBRANCH   9  29
BRANCH  20  33
ATOM     33  O   UNL     1       5.601  -1.085   1.572  0.00  0.00    +0.000 OA
BRANCH  33  35
ATOM     34  O   UNL     1       7.588  -1.363   0.428  0.00  0.00    +0.000 OA
ATOM     35  C   UNL     1       6.851  -1.601   1.375  0.00  0.00    +0.000 C 
ATOM     36  C   UNL     1       7.204  -2.522   2.503  0.00  0.00    +0.000 C 
ENDBRANCH  33  35
ENDBRANCH  20  33
TORSDOF 9
