REMARK  Name = 137517264
REMARK  6 active torsions:
REMARK  status: ('A' for Active; 'I' for Inactive)
REMARK    1  A    between atoms: O_3  and  C_17
REMARK    2  A    between atoms: O_4  and  C_22
REMARK    3  A    between atoms: C_9  and  C_17
REMARK    4  A    between atoms: C_12  and  C_18
REMARK    5  A    between atoms: C_13  and  C_21
REMARK    6  A    between atoms: C_18  and  C_22
REMARK                            x       y       z     vdW  Elec       q    Type
REMARK                         _______ _______ _______ _____ _____    ______ ____
ROOT
ATOM      1  O   UNL     1      -0.129   0.445   0.237  0.00  0.00    +0.000 OA
ATOM      2  O   UNL     1       0.438  -3.573  -0.288  0.00  0.00    +0.000 OA
ATOM      3  C   UNL     1       1.128  -0.068   0.035  0.00  0.00    +0.000 A 
ATOM      4  C   UNL     1       1.393  -1.425  -0.151  0.00  0.00    +0.000 A 
ATOM      5  C   UNL     1      -1.191  -0.425   0.259  0.00  0.00    +0.000 A 
ATOM      6  C   UNL     1       2.181   0.850   0.021  0.00  0.00    +0.000 A 
ATOM      7  C   UNL     1      -1.070  -1.803   0.087  0.00  0.00    +0.000 A 
ATOM      8  C   UNL     1       0.269  -2.373  -0.131  0.00  0.00    +0.000 A 
ATOM      9  C   UNL     1      -2.453   0.137   0.467  0.00  0.00    +0.000 A 
ATOM     10  C   UNL     1       3.489   0.408  -0.179  0.00  0.00    +0.000 A 
ATOM     11  C   UNL     1       2.701  -1.872  -0.351  0.00  0.00    +0.000 A 
ATOM     12  C   UNL     1       3.749  -0.950  -0.364  0.00  0.00    +0.000 A 
ATOM     13  C   UNL     1      -2.199  -2.625   0.121  0.00  0.00    +0.000 A 
ATOM     14  C   UNL     1      -3.583  -0.680   0.502  0.00  0.00    +0.000 A 
ATOM     15  C   UNL     1      -3.457  -2.058   0.330  0.00  0.00    +0.000 A 
ATOM     16  C   UNL     1       4.632   1.370  -0.199  0.00  0.00    +0.000 C 
ENDROOT
BRANCH   6  17
ATOM     17  C   UNL     1       1.909   2.308   0.219  0.00  0.00    +0.000 C 
BRANCH  17  18
ATOM     18  O   UNL     1       2.307   2.683   1.530  0.00  0.00    +0.000 OA
ATOM     19  H   UNL     1       2.138   3.636   1.619  0.00  0.00    +0.000 HD
ENDBRANCH  17  18
ENDBRANCH   6  17
BRANCH   9  20
ATOM     20  C   UNL     1      -2.620   1.610   0.655  0.00  0.00    +0.000 C 
BRANCH  20  22
ATOM     21  O   UNL     1      -2.268   1.920  -1.734  0.00  0.00    +0.000 OA
ATOM     22  C   UNL     1      -2.510   2.397  -0.634  0.00  0.00    +0.000 C 
BRANCH  22  23
ATOM     23  O   UNL     1      -2.714   3.726  -0.433  0.00  0.00    +0.000 OA
ATOM     24  H   UNL     1      -2.643   4.237  -1.267  0.00  0.00    +0.000 HD
ENDBRANCH  22  23
ENDBRANCH  20  22
ENDBRANCH   9  20
TORSDOF 5
