REMARK  Name = 137517262
REMARK  16 active torsions:
REMARK  status: ('A' for Active; 'I' for Inactive)
REMARK    1  A    between atoms: O_1  and  C_12
REMARK    2  A    between atoms: O_1  and  C_16
REMARK    3  A    between atoms: O_2  and  C_13
REMARK    4  A    between atoms: O_2  and  C_17
REMARK    5  A    between atoms: O_4  and  C_20
REMARK    6  A    between atoms: N_6  and  C_9
REMARK    7  A    between atoms: N_6  and  C_10
REMARK    8  A    between atoms: N_7  and  C_18
REMARK    9  A    between atoms: N_8  and  C_19
REMARK   10  A    between atoms: C_9  and  C_12
REMARK   11  A    between atoms: C_10  and  C_13
REMARK   12  A    between atoms: C_11  and  C_14
REMARK   13  A    between atoms: C_14  and  C_15
REMARK   14  A    between atoms: C_15  and  C_20
REMARK   15  A    between atoms: C_16  and  C_18
REMARK   16  A    between atoms: C_17  and  C_19
REMARK                            x       y       z     vdW  Elec       q    Type
REMARK                         _______ _______ _______ _____ _____    ______ ____
ROOT
ATOM      1  O   UNL     1      -1.677   0.576   1.606  0.00  0.00    +0.000 OA
ATOM      2  N   UNL     1      -0.149  -0.813   0.551  0.00  0.00    +0.000 N 
ATOM      3  C   UNL     1      -0.724   0.430   0.835  0.00  0.00    +0.000 C 
ENDROOT
BRANCH   2   4
ATOM      4  C   UNL     1      -0.672  -2.011   1.196  0.00  0.00    +0.000 C 
BRANCH   4   5
ATOM      5  C   UNL     1      -1.780  -2.630   0.360  0.00  0.00    +0.000 C 
BRANCH   5   6
ATOM      6  O   UNL     1      -2.836  -1.687   0.228  0.00  0.00    +0.000 OA
BRANCH   6   7
ATOM      7  C   UNL     1      -3.907  -2.207  -0.547  0.00  0.00    +0.000 C 
BRANCH   7   8
ATOM      8  C   UNL     1      -4.996  -1.151  -0.646  0.00  0.00    +0.000 C 
BRANCH   8   9
ATOM      9  N   UNL     1      -6.110  -1.635  -1.448  0.00  0.00    +0.000 NA
ATOM     10  H   UNL     1      -6.511  -2.465  -1.015  0.00  0.00    +0.000 HD
ATOM     11  H   UNL     1      -6.849  -0.933  -1.460  0.00  0.00    +0.000 HD
ENDBRANCH   8   9
ENDBRANCH   7   8
ENDBRANCH   6   7
ENDBRANCH   5   6
ENDBRANCH   4   5
ENDBRANCH   2   4
BRANCH   2  12
ATOM     12  C   UNL     1       0.978  -1.036  -0.352  0.00  0.00    +0.000 C 
BRANCH  12  13
ATOM     13  C   UNL     1       2.296  -0.947   0.401  0.00  0.00    +0.000 C 
BRANCH  13  14
ATOM     14  O   UNL     1       3.360  -1.187  -0.511  0.00  0.00    +0.000 OA
BRANCH  14  15
ATOM     15  C   UNL     1       4.624  -1.118   0.134  0.00  0.00    +0.000 C 
BRANCH  15  16
ATOM     16  C   UNL     1       5.712  -1.383  -0.894  0.00  0.00    +0.000 C 
BRANCH  16  17
ATOM     17  N   UNL     1       7.029  -1.305  -0.280  0.00  0.00    +0.000 NA
ATOM     18  H   UNL     1       7.109  -2.006   0.455  0.00  0.00    +0.000 HD
ATOM     19  H   UNL     1       7.740  -1.536  -0.973  0.00  0.00    +0.000 HD
ENDBRANCH  16  17
ENDBRANCH  15  16
ENDBRANCH  14  15
ENDBRANCH  13  14
ENDBRANCH  12  13
ENDBRANCH   2  12
BRANCH   3  20
ATOM     20  C   UNL     1      -0.102   1.635   0.135  0.00  0.00    +0.000 C 
BRANCH  20  21
ATOM     21  C   UNL     1      -0.777   2.960   0.489  0.00  0.00    +0.000 C 
BRANCH  21  23
ATOM     22  O   UNL     1       0.772   4.087  -1.018  0.00  0.00    +0.000 OA
ATOM     23  C   UNL     1      -0.186   4.135  -0.259  0.00  0.00    +0.000 C 
BRANCH  23  24
ATOM     24  O   UNL     1      -0.854   5.286   0.019  0.00  0.00    +0.000 OA
ATOM     25  H   UNL     1      -0.474   6.053  -0.460  0.00  0.00    +0.000 HD
ENDBRANCH  23  24
ENDBRANCH  21  23
ENDBRANCH  20  21
ENDBRANCH   3  20
TORSDOF 16
