REMARK  Name = 137517259
REMARK  7 active torsions:
REMARK  status: ('A' for Active; 'I' for Inactive)
REMARK    1  A    between atoms: O_2  and  C_5
REMARK    2  A    between atoms: O_2  and  C_12
REMARK    3  A    between atoms: C_4  and  C_6
REMARK    4  A    between atoms: C_4  and  C_7
REMARK    5  A    between atoms: C_5  and  C_6
REMARK    6  A    between atoms: C_8  and  C_9
REMARK    7  A    between atoms: C_11  and  C_13
REMARK                            x       y       z     vdW  Elec       q    Type
REMARK                         _______ _______ _______ _____ _____    ______ ____
ROOT
ATOM      1  C   UNL     1       0.423  -1.040   0.341  0.00  0.00    +0.000 C 
ATOM      2  C   UNL     1      -0.042  -2.240  -0.041  0.00  0.00    +0.000 C 
ENDROOT
BRANCH   1   4
ATOM      3 CL   UNL     1      -2.559   1.602   1.291  0.00  0.00    +0.000 Cl
ATOM      4  C   UNL     1      -0.442  -0.017   0.902  0.00  0.00    +0.000 C 
ATOM      5  C   UNL     1      -1.692   0.307   0.516  0.00  0.00    +0.000 C 
BRANCH   5   6
ATOM      6  C   UNL     1      -2.328  -0.400  -0.588  0.00  0.00    +0.000 C 
ATOM      7  C   UNL     1      -3.558  -0.194  -1.086  0.00  0.00    +0.000 C 
ATOM      8  C   UNL     1      -4.499   0.840  -0.556  0.00  0.00    +0.000 C 
ENDBRANCH   5   6
ENDBRANCH   1   4
BRANCH   1  10
ATOM      9  O   UNL     1       2.721  -1.659   0.154  0.00  0.00    +0.000 OA
ATOM     10  C   UNL     1       1.885  -0.757   0.123  0.00  0.00    +0.000 C 
BRANCH  10  11
ATOM     11  C   UNL     1       2.294   0.684  -0.127  0.00  0.00    +0.000 C 
BRANCH  11  12
ATOM     12  O   UNL     1       3.689   0.767  -0.345  0.00  0.00    +0.000 OA
ATOM     13  C   UNL     1       4.108   2.107  -0.583  0.00  0.00    +0.000 C 
ENDBRANCH  11  12
ENDBRANCH  10  11
ENDBRANCH   1  10
TORSDOF 5
